@<TRIPOS>MOLECULE
UNL
   14    13     1     0     0
SMALL
bcc


@<TRIPOS>ATOM
      1 O           -2.9250     3.0410     1.4410 o          1 UNL      -0.525100
      2 C           -2.3030     3.4500     0.4730 c          1 UNL       0.566900
      3 C1          -1.3650     2.5610    -0.3040 c3         1 UNL      -0.198400
      4 C2          -1.2660     1.1190     0.2320 c3         1 UNL      -0.045200
      5 C3          -2.5090     0.2590     0.1110 c2         1 UNL      -0.163200
      6 C4          -3.6690     0.6380    -0.4430 c2         1 UNL      -0.226000
      7 H           -2.4190     4.4840     0.1680 h4         1 UNL      -0.007800
      8 H1          -0.3560     3.0220    -0.2430 hc         1 UNL       0.065700
      9 H2          -1.6660     2.5410    -1.3730 hc         1 UNL       0.065700
     10 H3          -0.9620     1.1570     1.3000 hc         1 UNL       0.062700
     11 H4          -0.4610     0.5990    -0.3310 hc         1 UNL       0.062700
     12 H5          -2.4440    -0.7520     0.5010 ha         1 UNL       0.122000
     13 H6          -3.8200     1.6240    -0.8650 ha         1 UNL       0.110500
     14 H7          -4.4970    -0.0620    -0.4810 ha         1 UNL       0.110500
@<TRIPOS>BOND
     1     1     2 2   
     2     2     3 1   
     3     2     7 1   
     4     3     4 1   
     5     3     8 1   
     6     3     9 1   
     7     4     5 1   
     8     4    10 1   
     9     4    11 1   
    10     5     6 2   
    11     5    12 1   
    12     6    13 1   
    13     6    14 1   
@<TRIPOS>SUBSTRUCTURE
     1 UNL         1 TEMP              0 ****  ****    0 ROOT
